<?xml version="1.0" encoding="UTF-8"?>

<!-- generated on 2026-03-11T15:46:22.689983+07:00 by Eclipse SUMO duarouter 1.25.0
<duarouterConfiguration xmlns:xsi="http://www.w3.org/2001/XMLSchema-instance" xsi:noNamespaceSchemaLocation="http://sumo.dlr.de/xsd/duarouterConfiguration.xsd">

    <input>
        <net-file value="C:\Phi\Work\NewWork\SimulationData\SampleData\OneIntersect\network.net.xml"/>
        <route-files value="trips.trips.xml"/>
    </input>

    <output>
        <output-file value="trips.trips.xml.tmp"/>
        <alternatives-output value="NUL"/>
        <write-trips value="true"/>
    </output>

    <time>
        <begin value="0"/>
        <end value="600.0"/>
    </time>

    <report>
        <no-warnings value="true"/>
        <ignore-errors value="true"/>
        <no-step-log value="true"/>
    </report>

</duarouterConfiguration>
-->

<routes xmlns:xsi="http://www.w3.org/2001/XMLSchema-instance" xsi:noNamespaceSchemaLocation="http://sumo.dlr.de/xsd/routes_file.xsd">
    <trip id="0" depart="0.00" from="-E3" to="-E0"/>
    <trip id="1" depart="2.00" from="-E2" to="-E0"/>
    <trip id="2" depart="4.00" from="-E3" to="E2"/>
    <trip id="4" depart="8.00" from="-E2" to="-E0"/>
    <trip id="5" depart="10.00" from="-E1" to="E2"/>
    <trip id="6" depart="12.00" from="-E1" to="-E0"/>
    <trip id="7" depart="14.00" from="-E3" to="E2"/>
    <trip id="8" depart="16.00" from="-E1" to="E2"/>
    <trip id="10" depart="20.00" from="E0" to="E2"/>
    <trip id="11" depart="22.00" from="-E2" to="-E0"/>
    <trip id="12" depart="24.00" from="E0" to="E1"/>
    <trip id="13" depart="26.00" from="-E1" to="-E0"/>
    <trip id="14" depart="28.00" from="E0" to="E2"/>
    <trip id="15" depart="30.00" from="E0" to="E2"/>
    <trip id="18" depart="36.00" from="E0" to="E2"/>
    <trip id="19" depart="38.00" from="E0" to="E2"/>
    <trip id="20" depart="40.00" from="-E3" to="-E0"/>
    <trip id="22" depart="44.00" from="-E1" to="-E0"/>
    <trip id="24" depart="48.00" from="-E3" to="E1"/>
    <trip id="25" depart="50.00" from="-E2" to="-E0"/>
    <trip id="26" depart="52.00" from="-E2" to="E3"/>
    <trip id="27" depart="54.00" from="-E3" to="E2"/>
    <trip id="28" depart="56.00" from="-E1" to="E2"/>
    <trip id="30" depart="60.00" from="E0" to="E2"/>
    <trip id="31" depart="62.00" from="-E3" to="E2"/>
    <trip id="32" depart="64.00" from="E0" to="E3"/>
    <trip id="33" depart="66.00" from="-E1" to="-E0"/>
    <trip id="34" depart="68.00" from="-E2" to="E1"/>
    <trip id="35" depart="70.00" from="-E1" to="E3"/>
    <trip id="36" depart="72.00" from="E0" to="E1"/>
    <trip id="37" depart="74.00" from="-E3" to="E1"/>
    <trip id="38" depart="76.00" from="E0" to="E1"/>
    <trip id="39" depart="78.00" from="-E2" to="-E0"/>
    <trip id="40" depart="80.00" from="-E3" to="E1"/>
    <trip id="42" depart="84.00" from="-E2" to="-E0"/>
    <trip id="43" depart="86.00" from="E0" to="E2"/>
    <trip id="44" depart="88.00" from="-E1" to="-E0"/>
    <trip id="45" depart="90.00" from="-E1" to="E2"/>
    <trip id="46" depart="92.00" from="E0" to="E1"/>
    <trip id="48" depart="96.00" from="E0" to="E2"/>
    <trip id="49" depart="98.00" from="E0" to="E3"/>
    <trip id="50" depart="100.00" from="-E1" to="E2"/>
    <trip id="51" depart="102.00" from="-E3" to="E2"/>
    <trip id="54" depart="108.00" from="-E2" to="E3"/>
    <trip id="55" depart="110.00" from="E0" to="E1"/>
    <trip id="56" depart="112.00" from="-E3" to="-E0"/>
    <trip id="57" depart="114.00" from="E0" to="E3"/>
    <trip id="59" depart="118.00" from="-E3" to="-E0"/>
    <trip id="60" depart="120.00" from="E0" to="E2"/>
    <trip id="61" depart="122.00" from="E0" to="E2"/>
    <trip id="63" depart="126.00" from="-E1" to="E3"/>
    <trip id="64" depart="128.00" from="E0" to="E3"/>
    <trip id="65" depart="130.00" from="-E2" to="-E0"/>
    <trip id="66" depart="132.00" from="E0" to="E3"/>
    <trip id="68" depart="136.00" from="-E1" to="E3"/>
    <trip id="71" depart="142.00" from="-E2" to="E3"/>
    <trip id="72" depart="144.00" from="-E2" to="-E0"/>
    <trip id="73" depart="146.00" from="-E3" to="E2"/>
    <trip id="75" depart="150.00" from="E0" to="E2"/>
    <trip id="77" depart="154.00" from="-E1" to="-E0"/>
    <trip id="79" depart="158.00" from="-E1" to="-E0"/>
    <trip id="80" depart="160.00" from="-E1" to="E2"/>
    <trip id="81" depart="162.00" from="-E1" to="E3"/>
    <trip id="83" depart="166.00" from="-E1" to="E2"/>
    <trip id="84" depart="168.00" from="-E1" to="-E0"/>
    <trip id="85" depart="170.00" from="E0" to="E2"/>
    <trip id="86" depart="172.00" from="-E2" to="E3"/>
    <trip id="89" depart="178.00" from="-E2" to="E1"/>
    <trip id="90" depart="180.00" from="-E3" to="E2"/>
    <trip id="92" depart="184.00" from="-E2" to="E1"/>
    <trip id="95" depart="190.00" from="-E2" to="E1"/>
    <trip id="96" depart="192.00" from="-E1" to="E3"/>
    <trip id="97" depart="194.00" from="-E2" to="E3"/>
    <trip id="98" depart="196.00" from="-E3" to="-E0"/>
    <trip id="99" depart="198.00" from="E0" to="E3"/>
    <trip id="100" depart="200.00" from="E0" to="E3"/>
    <trip id="102" depart="204.00" from="-E2" to="-E0"/>
    <trip id="103" depart="206.00" from="-E2" to="-E0"/>
    <trip id="104" depart="208.00" from="-E2" to="E3"/>
    <trip id="105" depart="210.00" from="-E2" to="E3"/>
    <trip id="106" depart="212.00" from="-E2" to="E1"/>
    <trip id="107" depart="214.00" from="E0" to="E3"/>
    <trip id="108" depart="216.00" from="-E3" to="E2"/>
    <trip id="110" depart="220.00" from="E0" to="E2"/>
    <trip id="111" depart="222.00" from="-E3" to="E2"/>
    <trip id="112" depart="224.00" from="-E1" to="E2"/>
    <trip id="114" depart="228.00" from="-E1" to="E3"/>
    <trip id="115" depart="230.00" from="-E1" to="-E0"/>
    <trip id="116" depart="232.00" from="-E3" to="E2"/>
    <trip id="117" depart="234.00" from="-E1" to="-E0"/>
    <trip id="119" depart="238.00" from="-E3" to="E2"/>
    <trip id="122" depart="244.00" from="-E1" to="E2"/>
    <trip id="124" depart="248.00" from="-E3" to="E1"/>
    <trip id="125" depart="250.00" from="-E2" to="E3"/>
    <trip id="127" depart="254.00" from="E0" to="E3"/>
    <trip id="128" depart="256.00" from="-E1" to="-E0"/>
    <trip id="129" depart="258.00" from="-E2" to="E3"/>
    <trip id="130" depart="260.00" from="E0" to="E3"/>
    <trip id="131" depart="262.00" from="-E2" to="-E0"/>
    <trip id="132" depart="264.00" from="E0" to="E2"/>
    <trip id="134" depart="268.00" from="-E3" to="-E0"/>
    <trip id="135" depart="270.00" from="E0" to="E1"/>
    <trip id="137" depart="274.00" from="-E1" to="-E0"/>
    <trip id="138" depart="276.00" from="-E1" to="E2"/>
    <trip id="140" depart="280.00" from="-E3" to="-E0"/>
    <trip id="141" depart="282.00" from="-E3" to="E1"/>
    <trip id="142" depart="284.00" from="-E2" to="E3"/>
    <trip id="144" depart="288.00" from="-E2" to="E1"/>
    <trip id="145" depart="290.00" from="-E1" to="E3"/>
    <trip id="146" depart="292.00" from="-E3" to="E1"/>
    <trip id="147" depart="294.00" from="-E3" to="E2"/>
    <trip id="148" depart="296.00" from="-E2" to="-E0"/>
    <trip id="149" depart="298.00" from="-E1" to="E3"/>
    <trip id="150" depart="300.00" from="E0" to="E2"/>
    <trip id="151" depart="302.00" from="E0" to="E2"/>
    <trip id="152" depart="304.00" from="-E1" to="-E0"/>
    <trip id="153" depart="306.00" from="-E2" to="E3"/>
    <trip id="154" depart="308.00" from="E0" to="E3"/>
    <trip id="156" depart="312.00" from="-E1" to="-E0"/>
    <trip id="157" depart="314.00" from="E0" to="E3"/>
    <trip id="159" depart="318.00" from="-E1" to="E3"/>
    <trip id="160" depart="320.00" from="E0" to="E3"/>
    <trip id="161" depart="322.00" from="E0" to="E3"/>
    <trip id="162" depart="324.00" from="-E1" to="E2"/>
    <trip id="163" depart="326.00" from="-E2" to="E3"/>
    <trip id="164" depart="328.00" from="E0" to="E3"/>
    <trip id="165" depart="330.00" from="E0" to="E1"/>
    <trip id="167" depart="334.00" from="E0" to="E3"/>
    <trip id="168" depart="336.00" from="-E1" to="E3"/>
    <trip id="169" depart="338.00" from="-E2" to="E1"/>
    <trip id="171" depart="342.00" from="-E1" to="-E0"/>
    <trip id="172" depart="344.00" from="-E2" to="E3"/>
    <trip id="173" depart="346.00" from="E0" to="E1"/>
    <trip id="174" depart="348.00" from="-E3" to="E1"/>
    <trip id="175" depart="350.00" from="E0" to="E2"/>
    <trip id="178" depart="356.00" from="E0" to="E1"/>
    <trip id="180" depart="360.00" from="-E3" to="E1"/>
    <trip id="181" depart="362.00" from="-E3" to="E2"/>
    <trip id="184" depart="368.00" from="-E1" to="E3"/>
    <trip id="185" depart="370.00" from="-E3" to="E2"/>
    <trip id="186" depart="372.00" from="-E3" to="E2"/>
    <trip id="187" depart="374.00" from="-E2" to="-E0"/>
    <trip id="188" depart="376.00" from="-E3" to="E1"/>
    <trip id="189" depart="378.00" from="-E2" to="E3"/>
    <trip id="190" depart="380.00" from="-E3" to="E1"/>
    <trip id="191" depart="382.00" from="-E2" to="E1"/>
    <trip id="192" depart="384.00" from="-E2" to="E1"/>
    <trip id="194" depart="388.00" from="E0" to="E2"/>
    <trip id="195" depart="390.00" from="E0" to="E2"/>
    <trip id="199" depart="398.00" from="-E3" to="E1"/>
    <trip id="200" depart="400.00" from="-E2" to="-E0"/>
    <trip id="201" depart="402.00" from="-E2" to="E3"/>
    <trip id="203" depart="406.00" from="-E1" to="E2"/>
    <trip id="204" depart="408.00" from="-E3" to="E1"/>
    <trip id="205" depart="410.00" from="E0" to="E3"/>
    <trip id="206" depart="412.00" from="-E3" to="-E0"/>
    <trip id="207" depart="414.00" from="-E1" to="-E0"/>
    <trip id="211" depart="422.00" from="-E1" to="E2"/>
    <trip id="212" depart="424.00" from="-E2" to="-E0"/>
    <trip id="213" depart="426.00" from="-E3" to="-E0"/>
    <trip id="214" depart="428.00" from="E0" to="E3"/>
    <trip id="216" depart="432.00" from="-E1" to="E3"/>
    <trip id="217" depart="434.00" from="-E3" to="-E0"/>
    <trip id="218" depart="436.00" from="-E1" to="E3"/>
    <trip id="219" depart="438.00" from="-E2" to="E3"/>
    <trip id="222" depart="444.00" from="E0" to="E2"/>
    <trip id="223" depart="446.00" from="-E3" to="E2"/>
    <trip id="224" depart="448.00" from="E0" to="E2"/>
    <trip id="225" depart="450.00" from="E0" to="E2"/>
    <trip id="226" depart="452.00" from="-E2" to="E1"/>
    <trip id="227" depart="454.00" from="-E1" to="E2"/>
    <trip id="228" depart="456.00" from="E0" to="E2"/>
    <trip id="229" depart="458.00" from="-E3" to="E1"/>
    <trip id="231" depart="462.00" from="-E2" to="E1"/>
    <trip id="232" depart="464.00" from="-E3" to="-E0"/>
    <trip id="233" depart="466.00" from="-E1" to="E2"/>
    <trip id="234" depart="468.00" from="-E3" to="-E0"/>
    <trip id="236" depart="472.00" from="-E2" to="-E0"/>
    <trip id="237" depart="474.00" from="-E2" to="E3"/>
    <trip id="238" depart="476.00" from="-E3" to="E2"/>
    <trip id="239" depart="478.00" from="E0" to="E3"/>
    <trip id="240" depart="480.00" from="-E2" to="-E0"/>
    <trip id="241" depart="482.00" from="-E2" to="E3"/>
    <trip id="242" depart="484.00" from="E0" to="E3"/>
    <trip id="244" depart="488.00" from="-E3" to="E2"/>
    <trip id="245" depart="490.00" from="-E1" to="-E0"/>
    <trip id="246" depart="492.00" from="-E2" to="-E0"/>
    <trip id="248" depart="496.00" from="-E2" to="-E0"/>
    <trip id="249" depart="498.00" from="-E2" to="-E0"/>
    <trip id="250" depart="500.00" from="-E3" to="-E0"/>
    <trip id="252" depart="504.00" from="-E1" to="E2"/>
    <trip id="256" depart="512.00" from="E0" to="E1"/>
    <trip id="257" depart="514.00" from="E0" to="E3"/>
    <trip id="258" depart="516.00" from="-E2" to="-E0"/>
    <trip id="259" depart="518.00" from="-E1" to="E2"/>
    <trip id="260" depart="520.00" from="E0" to="E1"/>
    <trip id="264" depart="528.00" from="-E1" to="-E0"/>
    <trip id="265" depart="530.00" from="-E1" to="E2"/>
    <trip id="266" depart="532.00" from="-E3" to="-E0"/>
    <trip id="268" depart="536.00" from="-E1" to="E2"/>
    <trip id="269" depart="538.00" from="-E3" to="-E0"/>
    <trip id="270" depart="540.00" from="E0" to="E3"/>
    <trip id="271" depart="542.00" from="-E1" to="-E0"/>
    <trip id="273" depart="546.00" from="E0" to="E1"/>
    <trip id="274" depart="548.00" from="-E3" to="-E0"/>
    <trip id="275" depart="550.00" from="-E3" to="E2"/>
    <trip id="276" depart="552.00" from="-E1" to="E3"/>
    <trip id="277" depart="554.00" from="E0" to="E2"/>
    <trip id="278" depart="556.00" from="-E1" to="E3"/>
    <trip id="279" depart="558.00" from="E0" to="E1"/>
    <trip id="280" depart="560.00" from="-E2" to="E1"/>
    <trip id="281" depart="562.00" from="-E3" to="E1"/>
    <trip id="282" depart="564.00" from="E0" to="E3"/>
    <trip id="283" depart="566.00" from="-E1" to="E3"/>
    <trip id="285" depart="570.00" from="-E3" to="E1"/>
    <trip id="287" depart="574.00" from="-E2" to="E3"/>
    <trip id="288" depart="576.00" from="-E3" to="E1"/>
    <trip id="290" depart="580.00" from="-E2" to="E3"/>
    <trip id="294" depart="588.00" from="-E2" to="-E0"/>
    <trip id="296" depart="592.00" from="-E1" to="E3"/>
    <trip id="297" depart="594.00" from="-E2" to="E3"/>
    <trip id="298" depart="596.00" from="-E3" to="E1"/>
    <trip id="299" depart="598.00" from="-E1" to="E3"/>
</routes>
