<?xml version="1.0" encoding="UTF-8"?>

<!-- generated on 2026-03-02T16:36:26.275993+07:00 by Eclipse SUMO sumo 1.25.0
-->

<sumoConfiguration xmlns:xsi="http://www.w3.org/2001/XMLSchema-instance" xsi:noNamespaceSchemaLocation="http://sumo.dlr.de/xsd/sumoConfiguration.xsd">

    <input>
        <net-file value="network.net.xml"/>
        <route-files value="route_one_car_no_delay.rou.xml"/>
    </input>

</sumoConfiguration>
