<?xml version="1.0" encoding="UTF-8"?>

<!-- generated on 2026-02-05T11:05:14.481827+07:00 by Eclipse SUMO netedit 1.25.0
-->

<routes xmlns:xsi="http://www.w3.org/2001/XMLSchema-instance" xsi:noNamespaceSchemaLocation="http://sumo.dlr.de/xsd/routes_file.xsd">
    <!-- Vehicles, persons and containers (sorted by depart) -->
    <trip id="t_2" depart="0.00" from="-E1" to="E3"/>
    <trip id="t_0" depart="10.00" from="-E1" to="E3"/>
    <trip id="t_3" depart="20.00" from="-E1" to="E3"/>
    <trip id="t_1" depart="30.00" from="-E1" to="E3"/>
    <trip id="t_9" depart="40.00" from="-E1" to="E3"/>
    <trip id="t_8" depart="50.00" from="-E1" to="E3"/>
    <trip id="t_4" depart="60.00" from="-E1" to="E3"/>
    <trip id="t_5" depart="70.00" from="-E1" to="E3"/>
    <trip id="t_7" depart="80.00" from="-E1" to="E3"/>
    <trip id="t_6" depart="90.00" from="-E1" to="E3"/>
</routes>
