<?xml version="1.0" encoding="UTF-8"?>

<!-- generated on 2026-03-06T09:42:36.768399+07:00 by Eclipse SUMO sumo 1.25.0
-->

<sumoConfiguration xmlns:xsi="http://www.w3.org/2001/XMLSchema-instance" xsi:noNamespaceSchemaLocation="http://sumo.dlr.de/xsd/sumoConfiguration.xsd">

    <input>
        <net-file value="network.net.xml"/>
        <route-files value="route_one_car_delay_40_5_cars.rou.xml"/>
    </input>

</sumoConfiguration>
