<?xml version="1.0" encoding="UTF-8"?>

<!-- generated on 2026-02-05T11:03:34.606395+07:00 by Eclipse SUMO netedit 1.25.0
<neteditConfiguration xmlns:xsi="http://www.w3.org/2001/XMLSchema-instance" xsi:noNamespaceSchemaLocation="http://sumo.dlr.de/xsd/neteditConfiguration.xsd">

    <input>
        <sumocfg-file value="C:\Phi\Work\SimulationData\OneIntersect\config.sumocfg"/>
        <route-files value="C:\Phi\Work\SimulationData\OneIntersect\route.rou.xml"/>
        <sumo-net-file value="C:\Phi\Work\SimulationData\OneIntersect\network.net.xml"/>
    </input>

    <output>
        <output-file value="C:\Phi\Work\SimulationData\OneIntersect\network.net.xml"/>
    </output>

    <processing>
        <geometry.min-radius.fix.railways value="false"/>
        <geometry.avoid-overlap value="false"/>
        <geometry.max-grade.fix value="false"/>
        <offset.disable-normalization value="true"/>
        <lefthand value="0"/>
    </processing>

    <junctions>
        <no-turnarounds value="true"/>
        <junctions.corner-detail value="5"/>
        <junctions.limit-turn-speed value="5.50"/>
        <rectangular-lane-cut value="0"/>
    </junctions>

    <pedestrian>
        <walkingareas value="0"/>
    </pedestrian>

</neteditConfiguration>
-->

<net version="1.20" junctionCornerDetail="5" limitTurnSpeed="5.50" avoidOverlap="0" xmlns:xsi="http://www.w3.org/2001/XMLSchema-instance" xsi:noNamespaceSchemaLocation="http://sumo.dlr.de/xsd/net_file.xsd">

    <location netOffset="0.00,0.00" convBoundary="-99.28,-62.46,79.91,75.53" origBoundary="-10000000000.00,-10000000000.00,10000000000.00,10000000000.00" projParameter="!"/>

    <edge id=":J1_0" function="internal">
        <lane id=":J1_0_0" index="0" speed="6.68" length="9.48" shape="8.20,15.83 5.66,16.19 3.84,17.30 2.72,19.14 2.31,21.74"/>
    </edge>
    <edge id=":J1_1" function="internal">
        <lane id=":J1_1_0" index="0" speed="13.89" length="27.44" shape="8.20,12.63 -19.24,12.66"/>
    </edge>
    <edge id=":J1_2" function="internal">
        <lane id=":J1_2_0" index="0" speed="10.35" length="12.04" shape="8.21,9.43 1.54,8.45 -2.99,5.71"/>
    </edge>
    <edge id=":J1_12" function="internal">
        <lane id=":J1_12_0" index="0" speed="10.35" length="12.56" shape="-2.99,5.71 -3.21,5.58 -6.03,0.79 -6.92,-5.89"/>
    </edge>
    <edge id=":J1_3" function="internal">
        <lane id=":J1_3_0" index="0" speed="6.49" length="9.03" shape="2.68,-5.80 3.01,-3.34 4.04,-1.59 5.79,-0.53 8.24,-0.17"/>
    </edge>
    <edge id=":J1_4" function="internal">
        <lane id=":J1_4_0" index="0" speed="13.89" length="27.51" shape="-0.52,-5.83 -0.89,21.68"/>
    </edge>
    <edge id=":J1_5" function="internal">
        <lane id=":J1_5_0" index="0" speed="10.48" length="12.17" shape="-3.72,-5.86 -4.74,0.81 -7.58,5.43"/>
    </edge>
    <edge id=":J1_13" function="internal">
        <lane id=":J1_13_0" index="0" speed="10.48" length="12.63" shape="-7.58,5.43 -7.68,5.59 -12.51,8.47 -19.25,9.46"/>
    </edge>
    <edge id=":J1_6" function="internal">
        <lane id=":J1_6_0" index="0" speed="6.68" length="9.48" shape="-19.30,-0.14 -16.70,-0.52 -14.84,-1.61 -13.71,-3.42 -13.32,-5.95"/>
    </edge>
    <edge id=":J1_7" function="internal">
        <lane id=":J1_7_0" index="0" speed="13.89" length="27.52" shape="-19.29,3.06 8.23,3.03"/>
    </edge>
    <edge id=":J1_8" function="internal">
        <lane id=":J1_8_0" index="0" speed="10.33" length="12.17" shape="-19.27,6.26 -12.53,7.19 -7.94,9.95"/>
    </edge>
    <edge id=":J1_14" function="internal">
        <lane id=":J1_14_0" index="0" speed="10.33" length="12.60" shape="-7.94,9.95 -7.75,10.06 -4.94,14.87 -4.08,21.63"/>
    </edge>
    <edge id=":J1_9" function="internal">
        <lane id=":J1_9_0" index="0" speed="6.46" length="9.03" shape="-13.68,21.46 -13.99,19.00 -15.02,17.25 -16.76,16.20 -19.22,15.86"/>
    </edge>
    <edge id=":J1_10" function="internal">
        <lane id=":J1_10_0" index="0" speed="13.89" length="27.44" shape="-10.48,21.52 -10.12,-5.92"/>
    </edge>
    <edge id=":J1_11" function="internal">
        <lane id=":J1_11_0" index="0" speed="10.48" length="12.20" shape="-7.28,21.57 -6.22,14.84 -3.40,10.25"/>
    </edge>
    <edge id=":J1_15" function="internal">
        <lane id=":J1_15_0" index="0" speed="10.48" length="12.60" shape="-3.40,10.25 -3.28,10.04 1.54,7.17 8.22,6.23"/>
    </edge>

    <edge id="-E0" from="J1" to="J0" priority="-1">
        <lane id="-E0_0" index="0" speed="13.89" length="53.94" shape="2.31,21.74 1.40,75.67"/>
        <lane id="-E0_1" index="1" speed="13.89" length="53.94" shape="-0.89,21.68 -1.80,75.61"/>
        <lane id="-E0_2" index="2" speed="13.89" length="53.94" shape="-4.08,21.63 -5.00,75.56"/>
    </edge>
    <edge id="-E1" from="J2" to="J1" priority="-1">
        <lane id="-E1_0" index="0" speed="13.89" length="80.02" shape="-99.32,0.25 -19.30,-0.14"/>
        <lane id="-E1_1" index="1" speed="13.89" length="80.02" shape="-99.30,3.45 -19.29,3.06"/>
        <lane id="-E1_2" index="2" speed="13.89" length="80.02" shape="-99.29,6.65 -19.27,6.26"/>
    </edge>
    <edge id="-E2" from="J3" to="J1" priority="-1">
        <lane id="-E2_0" index="0" speed="13.89" length="56.59" shape="3.23,-62.38 2.68,-5.80"/>
        <lane id="-E2_1" index="1" speed="13.89" length="56.59" shape="0.03,-62.41 -0.52,-5.83"/>
        <lane id="-E2_2" index="2" speed="13.89" length="56.59" shape="-3.17,-62.44 -3.72,-5.86"/>
    </edge>
    <edge id="-E3" from="J4" to="J1" priority="-1">
        <lane id="-E3_0" index="0" speed="13.89" length="71.69" shape="79.89,16.02 8.20,15.83"/>
        <lane id="-E3_1" index="1" speed="13.89" length="71.69" shape="79.90,12.82 8.20,12.63"/>
        <lane id="-E3_2" index="2" speed="13.89" length="71.69" shape="79.91,9.62 8.21,9.43"/>
    </edge>
    <edge id="E0" from="J0" to="J1" priority="-1">
        <lane id="E0_0" index="0" speed="13.89" length="53.94" shape="-14.60,75.39 -13.68,21.46"/>
        <lane id="E0_1" index="1" speed="13.89" length="53.94" shape="-11.40,75.45 -10.48,21.52"/>
        <lane id="E0_2" index="2" speed="13.89" length="53.94" shape="-8.20,75.50 -7.28,21.57"/>
    </edge>
    <edge id="E1" from="J1" to="J2" priority="-1">
        <lane id="E1_0" index="0" speed="13.89" length="80.02" shape="-19.22,15.86 -99.24,16.25"/>
        <lane id="E1_1" index="1" speed="13.89" length="80.02" shape="-19.24,12.66 -99.26,13.05"/>
        <lane id="E1_2" index="2" speed="13.89" length="80.02" shape="-19.25,9.46 -99.27,9.85"/>
    </edge>
    <edge id="E2" from="J1" to="J3" priority="-1">
        <lane id="E2_0" index="0" speed="13.89" length="56.59" shape="-13.32,-5.95 -12.77,-62.54"/>
        <lane id="E2_1" index="1" speed="13.89" length="56.59" shape="-10.12,-5.92 -9.57,-62.51"/>
        <lane id="E2_2" index="2" speed="13.89" length="56.59" shape="-6.92,-5.89 -6.37,-62.48"/>
    </edge>
    <edge id="E3" from="J1" to="J4" priority="-1">
        <lane id="E3_0" index="0" speed="13.89" length="71.69" shape="8.24,-0.17 79.93,0.02"/>
        <lane id="E3_1" index="1" speed="13.89" length="71.69" shape="8.23,3.03 79.92,3.22"/>
        <lane id="E3_2" index="2" speed="13.89" length="71.69" shape="8.22,6.23 79.91,6.42"/>
    </edge>

    <tlLogic id="J1" type="static" programID="0" offset="0">
        <phase duration="33" state="GrrGGgGrrGGg"/>
        <phase duration="3"  state="yrryygyrryyg"/>
        <phase duration="6"  state="rrrrrGrrrrrG"/>
        <phase duration="3"  state="rrrrryrrrrry"/>
        <phase duration="33" state="GGgGrrGGgGrr"/>
        <phase duration="3"  state="yygyrryygyrr"/>
        <phase duration="6"  state="rrGrrrrrGrrr"/>
        <phase duration="3"  state="rryrrrrryrrr"/>
    </tlLogic>

    <junction id="J0" type="dead_end" x="-6.60" y="75.53" incLanes="-E0_0 -E0_1 -E0_2" intLanes="" shape="-6.60,75.53 3.00,75.69 -6.60,75.53"/>
    <junction id="J1" type="traffic_light" x="-5.45" y="7.79" incLanes="-E3_0 -E3_1 -E3_2 -E2_0 -E2_1 -E2_2 -E1_0 -E1_1 -E1_2 E0_0 E0_1 E0_2" intLanes=":J1_0_0 :J1_1_0 :J1_12_0 :J1_3_0 :J1_4_0 :J1_13_0 :J1_6_0 :J1_7_0 :J1_14_0 :J1_9_0 :J1_10_0 :J1_15_0" shape="8.19,17.43 8.24,-1.77 6.03,-2.22 5.25,-2.78 4.70,-3.56 4.38,-4.56 4.28,-5.78 -14.92,-5.97 -15.42,-3.63 -16.04,-2.81 -16.89,-2.22 -17.98,-1.87 -19.31,-1.74 -19.22,17.46 -17.00,17.89 -16.23,18.44 -15.69,19.22 -15.37,20.22 -15.28,21.44 3.91,21.76 4.42,19.35 5.02,18.51 5.85,17.90 6.90,17.54">
        <request index="0"  response="000000000000" foes="000000000000" cont="0"/>
        <request index="1"  response="110000010000" foes="110100010000" cont="0"/>
        <request index="2"  response="100010110000" foes="100010110000" cont="1"/>
        <request index="3"  response="000000000000" foes="000000000000" cont="0"/>
        <request index="4"  response="000000000100" foes="100010000110" cont="0"/>
        <request index="5"  response="010100000100" foes="010110000100" cont="1"/>
        <request index="6"  response="000000000000" foes="000000000000" cont="0"/>
        <request index="7"  response="010000110000" foes="010000110100" cont="0"/>
        <request index="8"  response="110000100010" foes="110000100010" cont="1"/>
        <request index="9"  response="000000000000" foes="000000000000" cont="0"/>
        <request index="10" response="000100000000" foes="000110100010" cont="0"/>
        <request index="11" response="000100010100" foes="000100010110" cont="1"/>
    </junction>
    <junction id="J2" type="dead_end" x="-99.28" y="8.25" incLanes="E1_0 E1_1 E1_2" intLanes="" shape="-99.28,8.25 -99.23,17.85 -99.28,8.25"/>
    <junction id="J3" type="dead_end" x="-4.77" y="-62.46" incLanes="E2_0 E2_1 E2_2" intLanes="" shape="-4.77,-62.46 -14.37,-62.55 -4.77,-62.46"/>
    <junction id="J4" type="dead_end" x="79.91" y="8.02" incLanes="E3_0 E3_1 E3_2" intLanes="" shape="79.91,8.02 79.94,-1.58 79.91,8.02"/>

    <junction id=":J1_12_0" type="internal" x="-2.99" y="5.71" incLanes=":J1_2_0 -E1_1" intLanes=":J1_4_0 :J1_5_0 :J1_7_0 :J1_11_0"/>
    <junction id=":J1_13_0" type="internal" x="-7.58" y="5.43" incLanes=":J1_5_0 E0_1" intLanes=":J1_2_0 :J1_7_0 :J1_8_0 :J1_10_0"/>
    <junction id=":J1_14_0" type="internal" x="-7.94" y="9.95" incLanes=":J1_8_0 -E3_1" intLanes=":J1_1_0 :J1_5_0 :J1_10_0 :J1_11_0"/>
    <junction id=":J1_15_0" type="internal" x="-3.40" y="10.25" incLanes=":J1_11_0 -E2_1" intLanes=":J1_1_0 :J1_2_0 :J1_4_0 :J1_8_0"/>

    <connection from="-E1" to="E2" fromLane="0" toLane="0" via=":J1_6_0" tl="J1" linkIndex="6" dir="r" state="O"/>
    <connection from="-E1" to="E3" fromLane="1" toLane="1" via=":J1_7_0" tl="J1" linkIndex="7" dir="s" state="o"/>
    <connection from="-E1" to="-E0" fromLane="2" toLane="2" via=":J1_8_0" tl="J1" linkIndex="8" dir="l" state="o"/>
    <connection from="-E2" to="E3" fromLane="0" toLane="0" via=":J1_3_0" tl="J1" linkIndex="3" dir="r" state="O"/>
    <connection from="-E2" to="-E0" fromLane="1" toLane="1" via=":J1_4_0" tl="J1" linkIndex="4" dir="s" state="O"/>
    <connection from="-E2" to="E1" fromLane="2" toLane="2" via=":J1_5_0" tl="J1" linkIndex="5" dir="l" state="o"/>
    <connection from="-E3" to="-E0" fromLane="0" toLane="0" via=":J1_0_0" tl="J1" linkIndex="0" dir="r" state="O"/>
    <connection from="-E3" to="E1" fromLane="1" toLane="1" via=":J1_1_0" tl="J1" linkIndex="1" dir="s" state="o"/>
    <connection from="-E3" to="E2" fromLane="2" toLane="2" via=":J1_2_0" tl="J1" linkIndex="2" dir="l" state="o"/>
    <connection from="E0" to="E1" fromLane="0" toLane="0" via=":J1_9_0" tl="J1" linkIndex="9" dir="r" state="O"/>
    <connection from="E0" to="E2" fromLane="1" toLane="1" via=":J1_10_0" tl="J1" linkIndex="10" dir="s" state="O"/>
    <connection from="E0" to="E3" fromLane="2" toLane="2" via=":J1_11_0" tl="J1" linkIndex="11" dir="l" state="o"/>

    <connection from=":J1_0" to="-E0" fromLane="0" toLane="0" dir="r" state="M"/>
    <connection from=":J1_1" to="E1" fromLane="0" toLane="1" dir="s" state="M"/>
    <connection from=":J1_2" to="E2" fromLane="0" toLane="2" via=":J1_12_0" dir="l" state="m"/>
    <connection from=":J1_12" to="E2" fromLane="0" toLane="2" dir="l" state="M"/>
    <connection from=":J1_3" to="E3" fromLane="0" toLane="0" dir="r" state="M"/>
    <connection from=":J1_4" to="-E0" fromLane="0" toLane="1" dir="s" state="M"/>
    <connection from=":J1_5" to="E1" fromLane="0" toLane="2" via=":J1_13_0" dir="l" state="m"/>
    <connection from=":J1_13" to="E1" fromLane="0" toLane="2" dir="l" state="M"/>
    <connection from=":J1_6" to="E2" fromLane="0" toLane="0" dir="r" state="M"/>
    <connection from=":J1_7" to="E3" fromLane="0" toLane="1" dir="s" state="M"/>
    <connection from=":J1_8" to="-E0" fromLane="0" toLane="2" via=":J1_14_0" dir="l" state="m"/>
    <connection from=":J1_14" to="-E0" fromLane="0" toLane="2" dir="l" state="M"/>
    <connection from=":J1_9" to="E1" fromLane="0" toLane="0" dir="r" state="M"/>
    <connection from=":J1_10" to="E2" fromLane="0" toLane="1" dir="s" state="M"/>
    <connection from=":J1_11" to="E3" fromLane="0" toLane="2" via=":J1_15_0" dir="l" state="m"/>
    <connection from=":J1_15" to="E3" fromLane="0" toLane="2" dir="l" state="M"/>

</net>
