<?xml version="1.0" encoding="UTF-8"?>

<!-- generated on 2026-03-06T13:13:56.819019+07:00 by Eclipse SUMO netedit 1.25.0
-->

<routes xmlns:xsi="http://www.w3.org/2001/XMLSchema-instance" xsi:noNamespaceSchemaLocation="http://sumo.dlr.de/xsd/routes_file.xsd">
    <!-- Vehicles, persons and containers (sorted by depart) -->
    <trip id="t_0" depart="40.00" from="-E1" to="E3"/>
    <trip id="t_1" depart="40.00" from="-E1" to="E3"/>
    <trip id="t_2" depart="40.00" from="-E1" to="E3"/>
</routes>
