<configuration>
  <input>
    <net-file value="network.net.xml"/>
    <route-files value="random.rou.xml"/>
  </input>
  <time>
    <begin value="0"/>
    <end value="20000"/>
  </time>
</configuration>
