<?xml version="1.0" encoding="UTF-8"?>

<!-- generated on 2026-01-19T13:49:46.612939+07:00 by Eclipse SUMO netedit 1.25.0
<neteditConfiguration xmlns:xsi="http://www.w3.org/2001/XMLSchema-instance" xsi:noNamespaceSchemaLocation="http://sumo.dlr.de/xsd/neteditConfiguration.xsd">

    <input>
        <sumo-net-file value="C:\Phi\Work\SimulationData\Evaluate\Crowded\4Intersection\network.net.xml"/>
    </input>

    <output>
        <output-file value="C:\Phi\Work\SimulationData\Evaluate\Crowded\4Intersection\network.net.xml"/>
    </output>

    <processing>
        <geometry.min-radius.fix.railways value="false"/>
        <geometry.avoid-overlap value="false"/>
        <geometry.max-grade.fix value="false"/>
        <offset.disable-normalization value="true"/>
        <lefthand value="0"/>
    </processing>

    <junctions>
        <no-turnarounds value="true"/>
        <junctions.corner-detail value="5"/>
        <junctions.limit-turn-speed value="5.50"/>
        <rectangular-lane-cut value="0"/>
    </junctions>

    <pedestrian>
        <walkingareas value="0"/>
    </pedestrian>

</neteditConfiguration>
-->

<net version="1.20" junctionCornerDetail="5" limitTurnSpeed="5.50" avoidOverlap="0" xmlns:xsi="http://www.w3.org/2001/XMLSchema-instance" xsi:noNamespaceSchemaLocation="http://sumo.dlr.de/xsd/net_file.xsd">

    <location netOffset="0.00,0.00" convBoundary="-148.04,-64.10,206.60,159.60" origBoundary="-10000000000.00,-10000000000.00,10000000000.00,10000000000.00" projParameter="!"/>

    <edge id=":J1_0" function="internal">
        <lane id=":J1_0_0" index="0" speed="6.57" length="9.16" shape="3.73,15.20 1.24,15.55 -0.55,16.61 -1.63,18.37 -2.01,20.84"/>
    </edge>
    <edge id=":J1_1" function="internal">
        <lane id=":J1_1_0" index="0" speed="13.89" length="27.39" shape="3.73,12.00 -23.66,11.82"/>
    </edge>
    <edge id=":J1_2" function="internal">
        <lane id=":J1_2_0" index="0" speed="10.38" length="12.14" shape="3.73,8.80 -2.92,7.84 -7.56,5.04"/>
    </edge>
    <edge id=":J1_12" function="internal">
        <lane id=":J1_12_0" index="0" speed="10.38" length="12.47" shape="-7.56,5.04 -7.67,4.97 -10.52,0.18 -11.46,-6.52"/>
    </edge>
    <edge id=":J1_3" function="internal">
        <lane id=":J1_3_0" index="0" speed="6.53" length="9.11" shape="-1.86,-6.50 -1.51,-4.01 -0.46,-2.23 1.28,-1.16 3.73,-0.80"/>
    </edge>
    <edge id=":J1_4" function="internal">
        <lane id=":J1_4_0" index="0" speed="13.89" length="27.32" shape="-5.06,-6.51 -5.21,20.81"/>
    </edge>
    <edge id=":J1_5" function="internal">
        <lane id=":J1_5_0" index="0" speed="10.35" length="12.15" shape="-8.26,-6.51 -9.23,0.18 -12.02,4.79"/>
    </edge>
    <edge id=":J1_13" function="internal">
        <lane id=":J1_13_0" index="0" speed="10.35" length="12.50" shape="-12.02,4.79 -12.11,4.94 -16.91,7.75 -23.61,8.62"/>
    </edge>
    <edge id=":J1_6" function="internal">
        <lane id=":J1_6_0" index="0" speed="6.48" length="9.03" shape="-23.49,-0.98 -21.03,-1.30 -19.27,-2.33 -18.21,-4.07 -17.86,-6.53"/>
    </edge>
    <edge id=":J1_7" function="internal">
        <lane id=":J1_7_0" index="0" speed="13.89" length="27.26" shape="-23.53,2.22 3.73,2.40"/>
    </edge>
    <edge id=":J1_8" function="internal">
        <lane id=":J1_8_0" index="0" speed="10.39" length="12.08" shape="-23.57,5.42 -16.88,6.45 -12.35,9.22"/>
    </edge>
    <edge id=":J1_14" function="internal">
        <lane id=":J1_14_0" index="0" speed="10.39" length="12.51" shape="-12.35,9.22 -12.13,9.36 -9.30,14.14 -8.41,20.78"/>
    </edge>
    <edge id=":J1_9" function="internal">
        <lane id=":J1_9_0" index="0" speed="6.55" length="9.15" shape="-18.01,20.69 -18.35,18.23 -19.41,16.47 -21.19,15.40 -23.70,15.02"/>
    </edge>
    <edge id=":J1_10" function="internal">
        <lane id=":J1_10_0" index="0" speed="13.89" length="27.24" shape="-14.81,20.72 -14.66,-6.52"/>
    </edge>
    <edge id=":J1_11" function="internal">
        <lane id=":J1_11_0" index="0" speed="10.41" length="12.02" shape="-11.61,20.75 -10.60,14.12 -7.82,9.59"/>
    </edge>
    <edge id=":J1_15" function="internal">
        <lane id=":J1_15_0" index="0" speed="10.41" length="12.52" shape="-7.82,9.59 -7.70,9.39 -2.92,6.55 3.73,5.60"/>
    </edge>
    <edge id=":J2_0" function="internal">
        <lane id=":J2_0_0" index="0" speed="6.58" length="9.19" shape="-18.22,95.24 -18.60,92.73 -19.68,90.94 -21.45,89.86 -23.92,89.51"/>
    </edge>
    <edge id=":J2_1" function="internal">
        <lane id=":J2_1_0" index="0" speed="13.89" length="27.44" shape="-15.02,95.20 -15.09,67.76"/>
    </edge>
    <edge id=":J2_2" function="internal">
        <lane id=":J2_2_0" index="0" speed="10.37" length="12.17" shape="-11.82,95.17 -10.94,88.49 -8.18,83.81"/>
    </edge>
    <edge id=":J2_12" function="internal">
        <lane id=":J2_12_0" index="0" speed="10.37" length="12.45" shape="-8.18,83.81 -8.12,83.71 -3.36,80.82 3.34,79.82"/>
    </edge>
    <edge id=":J2_3" function="internal">
        <lane id=":J2_3_0" index="0" speed="6.52" length="9.09" shape="3.40,89.42 0.92,89.79 -0.85,90.85 -1.89,92.61 -2.22,95.07"/>
    </edge>
    <edge id=":J2_4" function="internal">
        <lane id=":J2_4_0" index="0" speed="13.89" length="27.30" shape="3.38,86.22 -23.92,86.31"/>
    </edge>
    <edge id=":J2_5" function="internal">
        <lane id=":J2_5_0" index="0" speed="10.35" length="12.14" shape="3.36,83.02 -3.35,82.11 -7.96,79.36"/>
    </edge>
    <edge id=":J2_13" function="internal">
        <lane id=":J2_13_0" index="0" speed="10.35" length="12.51" shape="-7.96,79.36 -8.12,79.26 -10.97,74.49 -11.89,67.78"/>
    </edge>
    <edge id=":J2_6" function="internal">
        <lane id=":J2_6_0" index="0" speed="6.48" length="9.03" shape="-2.29,67.84 -1.95,70.30 -0.91,72.05 0.84,73.09 3.30,73.42"/>
    </edge>
    <edge id=":J2_7" function="internal">
        <lane id=":J2_7_0" index="0" speed="13.89" length="27.28" shape="-5.49,67.82 -5.42,95.10"/>
    </edge>
    <edge id=":J2_8" function="internal">
        <lane id=":J2_8_0" index="0" speed="10.40" length="12.07" shape="-8.69,67.80 -9.68,74.50 -12.40,79.05"/>
    </edge>
    <edge id=":J2_14" function="internal">
        <lane id=":J2_14_0" index="0" speed="10.40" length="12.52" shape="-12.40,79.05 -12.54,79.28 -17.29,82.15 -23.92,83.11"/>
    </edge>
    <edge id=":J2_9" function="internal">
        <lane id=":J2_9_0" index="0" speed="6.56" length="9.17" shape="-23.91,73.51 -21.47,73.15 -19.71,72.07 -18.65,70.27 -18.29,67.75"/>
    </edge>
    <edge id=":J2_10" function="internal">
        <lane id=":J2_10_0" index="0" speed="13.89" length="27.23" shape="-23.92,76.71 3.32,76.62"/>
    </edge>
    <edge id=":J2_11" function="internal">
        <lane id=":J2_11_0" index="0" speed="10.41" length="12.01" shape="-23.92,79.91 -17.29,80.86 -12.73,83.60"/>
    </edge>
    <edge id=":J2_15" function="internal">
        <lane id=":J2_15_0" index="0" speed="10.41" length="12.54" shape="-12.73,83.60 -12.53,83.72 -9.64,88.47 -8.62,95.14"/>
    </edge>
    <edge id=":J3_0" function="internal">
        <lane id=":J3_0_0" index="0" speed="6.62" length="9.31" shape="127.42,14.95 124.89,15.33 123.08,16.42 121.99,18.22 121.62,20.73"/>
    </edge>
    <edge id=":J3_1" function="internal">
        <lane id=":J3_1_0" index="0" speed="13.89" length="27.37" shape="127.39,11.75 100.03,11.90"/>
    </edge>
    <edge id=":J3_2" function="internal">
        <lane id=":J3_2_0" index="0" speed="10.35" length="12.14" shape="127.36,8.55 120.66,7.66 116.03,4.92"/>
    </edge>
    <edge id=":J3_12" function="internal">
        <lane id=":J3_12_0" index="0" speed="10.35" length="12.48" shape="116.03,4.92 115.88,4.83 113.01,0.07 112.06,-6.62"/>
    </edge>
    <edge id=":J3_3" function="internal">
        <lane id=":J3_3_0" index="0" speed="6.49" length="9.03" shape="121.66,-6.61 122.01,-4.16 123.06,-2.41 124.81,-1.38 127.27,-1.05"/>
    </edge>
    <edge id=":J3_4" function="internal">
        <lane id=":J3_4_0" index="0" speed="13.89" length="27.33" shape="118.46,-6.62 118.42,20.72"/>
    </edge>
    <edge id=":J3_5" function="internal">
        <lane id=":J3_5_0" index="0" speed="10.39" length="12.15" shape="115.26,-6.62 114.30,0.08 111.54,4.70"/>
    </edge>
    <edge id=":J3_13" function="internal">
        <lane id=":J3_13_0" index="0" speed="10.39" length="12.48" shape="111.54,4.70 111.44,4.86 106.68,7.73 100.02,8.70"/>
    </edge>
    <edge id=":J3_6" function="internal">
        <lane id=":J3_6_0" index="0" speed="6.55" length="9.16" shape="100.01,-0.90 102.48,-1.26 104.24,-2.34 105.30,-4.12 105.66,-6.62"/>
    </edge>
    <edge id=":J3_7" function="internal">
        <lane id=":J3_7_0" index="0" speed="13.89" length="27.29" shape="100.01,2.30 127.30,2.15"/>
    </edge>
    <edge id=":J3_8" function="internal">
        <lane id=":J3_8_0" index="0" speed="10.36" length="12.02" shape="100.02,5.50 106.68,6.44 111.22,9.16"/>
    </edge>
    <edge id=":J3_14" function="internal">
        <lane id=":J3_14_0" index="0" speed="10.36" length="12.53" shape="111.22,9.16 111.44,9.29 114.28,14.05 115.22,20.71"/>
    </edge>
    <edge id=":J3_9" function="internal">
        <lane id=":J3_9_0" index="0" speed="6.50" length="9.03" shape="105.62,20.69 105.28,18.24 104.23,16.49 102.48,15.44 100.03,15.10"/>
    </edge>
    <edge id=":J3_10" function="internal">
        <lane id=":J3_10_0" index="0" speed="13.89" length="27.32" shape="108.82,20.70 108.86,-6.62"/>
    </edge>
    <edge id=":J3_11" function="internal">
        <lane id=":J3_11_0" index="0" speed="10.44" length="12.10" shape="112.02,20.71 112.99,14.04 115.75,9.45"/>
    </edge>
    <edge id=":J3_15" function="internal">
        <lane id=":J3_15_0" index="0" speed="10.44" length="12.57" shape="115.75,9.45 115.87,9.26 120.65,6.36 127.33,5.35"/>
    </edge>
    <edge id=":J5_0" function="internal">
        <lane id=":J5_0_0" index="0" speed="6.70" length="9.51" shape="127.26,88.63 124.71,89.01 122.87,90.13 121.76,91.99 121.37,94.57"/>
    </edge>
    <edge id=":J5_1" function="internal">
        <lane id=":J5_1_0" index="0" speed="13.89" length="27.46" shape="127.24,85.43 99.78,85.62"/>
    </edge>
    <edge id=":J5_2" function="internal">
        <lane id=":J5_2_0" index="0" speed="10.35" length="12.10" shape="127.21,82.23 120.52,81.32 115.92,78.59"/>
    </edge>
    <edge id=":J5_12" function="internal">
        <lane id=":J5_12_0" index="0" speed="10.35" length="12.52" shape="115.92,78.59 115.74,78.49 112.88,73.72 111.94,67.04"/>
    </edge>
    <edge id=":J5_3" function="internal">
        <lane id=":J5_3_0" index="0" speed="6.49" length="9.03" shape="121.54,67.05 121.88,69.51 122.93,71.25 124.68,72.29 127.14,72.63"/>
    </edge>
    <edge id=":J5_4" function="internal">
        <lane id=":J5_4_0" index="0" speed="13.89" length="27.49" shape="118.34,67.05 118.17,94.54"/>
    </edge>
    <edge id=":J5_5" function="internal">
        <lane id=":J5_5_0" index="0" speed="10.44" length="12.18" shape="115.14,67.04 114.16,73.73 111.37,78.38"/>
    </edge>
    <edge id=":J5_13" function="internal">
        <lane id=":J5_13_0" index="0" speed="10.44" length="12.57" shape="111.37,78.38 111.28,78.52 106.48,81.42 99.76,82.42"/>
    </edge>
    <edge id=":J5_6" function="internal">
        <lane id=":J5_6_0" index="0" speed="6.63" length="9.36" shape="99.70,72.82 102.25,72.44 104.07,71.35 105.17,69.54 105.54,67.02"/>
    </edge>
    <edge id=":J5_7" function="internal">
        <lane id=":J5_7_0" index="0" speed="13.89" length="27.44" shape="99.72,76.02 127.16,75.83"/>
    </edge>
    <edge id=":J5_8" function="internal">
        <lane id=":J5_8_0" index="0" speed="10.34" length="12.10" shape="99.74,79.22 106.46,80.14 111.02,82.86"/>
    </edge>
    <edge id=":J5_14" function="internal">
        <lane id=":J5_14_0" index="0" speed="10.34" length="12.60" shape="111.02,82.86 111.24,82.99 114.08,87.78 114.97,94.50"/>
    </edge>
    <edge id=":J5_9" function="internal">
        <lane id=":J5_9_0" index="0" speed="6.47" length="9.03" shape="105.37,94.41 105.04,91.95 104.01,90.20 102.26,89.15 99.80,88.82"/>
    </edge>
    <edge id=":J5_10" function="internal">
        <lane id=":J5_10_0" index="0" speed="13.89" length="27.41" shape="108.57,94.44 108.74,67.03"/>
    </edge>
    <edge id=":J5_11" function="internal">
        <lane id=":J5_11_0" index="0" speed="10.49" length="12.16" shape="111.77,94.47 112.79,87.76 115.57,83.16"/>
    </edge>
    <edge id=":J5_15" function="internal">
        <lane id=":J5_15_0" index="0" speed="10.49" length="12.63" shape="115.57,83.16 115.70,82.95 120.50,80.03 127.19,79.03"/>
    </edge>

    <edge id="-E0" from="J0" to="J1" priority="-1">
        <lane id="-E0_0" index="0" speed="13.89" length="124.46" shape="-147.93,-2.65 -23.49,-0.98"/>
        <lane id="-E0_1" index="1" speed="13.89" length="124.46" shape="-147.98,0.55 -23.53,2.22"/>
        <lane id="-E0_2" index="2" speed="13.89" length="124.46" shape="-148.02,3.75 -23.57,5.42"/>
    </edge>
    <edge id="-E1" from="J2" to="J1" priority="-1" shape="-10.37,81.51 -10.02,21.63 -9.88,7.20">
        <lane id="-E1_0" index="0" speed="13.89" length="47.05" shape="-18.29,67.75 -18.02,21.58 -18.01,20.69"/>
        <lane id="-E1_1" index="1" speed="13.89" length="47.05" shape="-15.09,67.76 -14.82,21.60 -14.81,20.72"/>
        <lane id="-E1_2" index="2" speed="13.89" length="47.05" shape="-11.89,67.78 -11.62,21.62 -11.61,20.75"/>
    </edge>
    <edge id="-E10" from="J2" to="J10" priority="-1">
        <lane id="-E10_0" index="0" speed="13.89" length="60.47" shape="-2.22,95.07 -1.57,155.53"/>
        <lane id="-E10_1" index="1" speed="13.89" length="60.47" shape="-5.42,95.10 -4.77,155.57"/>
        <lane id="-E10_2" index="2" speed="13.89" length="60.47" shape="-8.62,95.14 -7.97,155.60"/>
    </edge>
    <edge id="-E11" from="J11" to="J5" priority="-1">
        <lane id="-E11_0" index="0" speed="13.89" length="65.11" shape="104.71,159.52 105.37,94.41"/>
        <lane id="-E11_1" index="1" speed="13.89" length="65.11" shape="107.91,159.55 108.57,94.44"/>
        <lane id="-E11_2" index="2" speed="13.89" length="65.11" shape="111.11,159.58 111.77,94.47"/>
    </edge>
    <edge id="-E2" from="J3" to="J1" priority="-1" shape="113.65,7.08 16.69,7.20 -9.88,7.20">
        <lane id="-E2_0" index="0" speed="13.89" length="96.29" shape="100.03,15.10 16.70,15.20 3.73,15.20"/>
        <lane id="-E2_1" index="1" speed="13.89" length="96.29" shape="100.03,11.90 16.69,12.00 3.73,12.00"/>
        <lane id="-E2_2" index="2" speed="13.89" length="96.29" shape="100.02,8.70 16.69,8.80 3.73,8.80"/>
    </edge>
    <edge id="-E3" from="J4" to="J1" priority="-1">
        <lane id="-E3_0" index="0" speed="13.89" length="57.59" shape="-1.77,-64.09 -1.86,-6.50"/>
        <lane id="-E3_1" index="1" speed="13.89" length="57.59" shape="-4.97,-64.09 -5.06,-6.51"/>
        <lane id="-E3_2" index="2" speed="13.89" length="57.59" shape="-8.17,-64.10 -8.26,-6.51"/>
    </edge>
    <edge id="-E4" from="J5" to="J3" priority="-1">
        <lane id="-E4_0" index="0" speed="13.89" length="46.33" shape="105.54,67.02 105.62,20.69"/>
        <lane id="-E4_1" index="1" speed="13.89" length="46.33" shape="108.74,67.03 108.82,20.70"/>
        <lane id="-E4_2" index="2" speed="13.89" length="46.33" shape="111.94,67.04 112.02,20.71"/>
    </edge>
    <edge id="-E5" from="J6" to="J3" priority="-1">
        <lane id="-E5_0" index="0" speed="13.89" length="77.99" shape="205.41,14.20 127.42,14.95"/>
        <lane id="-E5_1" index="1" speed="13.89" length="77.99" shape="205.38,11.00 127.39,11.75"/>
        <lane id="-E5_2" index="2" speed="13.89" length="77.99" shape="205.35,7.80 127.36,8.55"/>
    </edge>
    <edge id="-E6" from="J7" to="J3" priority="-1">
        <lane id="-E6_0" index="0" speed="13.89" length="56.04" shape="121.69,-62.66 121.66,-6.61"/>
        <lane id="-E6_1" index="1" speed="13.89" length="56.04" shape="118.49,-62.66 118.46,-6.62"/>
        <lane id="-E6_2" index="2" speed="13.89" length="56.04" shape="115.29,-62.66 115.26,-6.62"/>
    </edge>
    <edge id="-E7" from="J5" to="J2" priority="-1">
        <lane id="-E7_0" index="0" speed="13.89" length="96.41" shape="99.80,88.82 3.40,89.42"/>
        <lane id="-E7_1" index="1" speed="13.89" length="96.41" shape="99.78,85.62 3.38,86.22"/>
        <lane id="-E7_2" index="2" speed="13.89" length="96.41" shape="99.76,82.42 3.36,83.02"/>
    </edge>
    <edge id="-E8" from="J8" to="J5" priority="-1">
        <lane id="-E8_0" index="0" speed="13.89" length="79.40" shape="206.66,88.02 127.26,88.63"/>
        <lane id="-E8_1" index="1" speed="13.89" length="79.40" shape="206.64,84.82 127.24,85.43"/>
        <lane id="-E8_2" index="2" speed="13.89" length="79.40" shape="206.61,81.62 127.21,82.23"/>
    </edge>
    <edge id="-E9" from="J9" to="J2" priority="-1">
        <lane id="-E9_0" index="0" speed="13.89" length="106.48" shape="-130.40,73.48 -23.91,73.51"/>
        <lane id="-E9_1" index="1" speed="13.89" length="106.48" shape="-130.40,76.68 -23.92,76.71"/>
        <lane id="-E9_2" index="2" speed="13.89" length="106.48" shape="-130.40,79.88 -23.92,79.91"/>
    </edge>
    <edge id="E0" from="J1" to="J0" priority="-1">
        <lane id="E0_0" index="0" speed="13.89" length="124.46" shape="-23.70,15.02 -148.15,13.35"/>
        <lane id="E0_1" index="1" speed="13.89" length="124.46" shape="-23.66,11.82 -148.10,10.15"/>
        <lane id="E0_2" index="2" speed="13.89" length="124.46" shape="-23.61,8.62 -148.06,6.95"/>
    </edge>
    <edge id="E1" from="J1" to="J2" priority="-1" shape="-9.88,7.20 -10.02,21.63 -10.37,81.51">
        <lane id="E1_0" index="0" speed="13.89" length="47.01" shape="-2.01,20.84 -2.02,21.69 -2.29,67.84"/>
        <lane id="E1_1" index="1" speed="13.89" length="47.01" shape="-5.21,20.81 -5.22,21.67 -5.49,67.82"/>
        <lane id="E1_2" index="2" speed="13.89" length="47.01" shape="-8.41,20.78 -8.42,21.64 -8.69,67.80"/>
    </edge>
    <edge id="E10" from="J10" to="J2" priority="-1">
        <lane id="E10_0" index="0" speed="13.89" length="60.47" shape="-17.57,155.71 -18.22,95.24"/>
        <lane id="E10_1" index="1" speed="13.89" length="60.47" shape="-14.37,155.67 -15.02,95.20"/>
        <lane id="E10_2" index="2" speed="13.89" length="60.47" shape="-11.17,155.64 -11.82,95.17"/>
    </edge>
    <edge id="E11" from="J5" to="J11" priority="-1">
        <lane id="E11_0" index="0" speed="13.89" length="65.11" shape="121.37,94.57 120.71,159.68"/>
        <lane id="E11_1" index="1" speed="13.89" length="65.11" shape="118.17,94.54 117.51,159.65"/>
        <lane id="E11_2" index="2" speed="13.89" length="65.11" shape="114.97,94.50 114.31,159.62"/>
    </edge>
    <edge id="E2" from="J1" to="J3" priority="-1" shape="-9.88,7.20 16.69,7.20 113.65,7.08">
        <lane id="E2_0" index="0" speed="13.89" length="96.28" shape="3.73,-0.80 16.69,-0.80 100.01,-0.90"/>
        <lane id="E2_1" index="1" speed="13.89" length="96.28" shape="3.73,2.40 16.69,2.40 100.01,2.30"/>
        <lane id="E2_2" index="2" speed="13.89" length="96.28" shape="3.73,5.60 16.69,5.60 100.02,5.50"/>
    </edge>
    <edge id="E3" from="J1" to="J4" priority="-1">
        <lane id="E3_0" index="0" speed="13.89" length="57.59" shape="-17.86,-6.53 -17.77,-64.11"/>
        <lane id="E3_1" index="1" speed="13.89" length="57.59" shape="-14.66,-6.52 -14.57,-64.11"/>
        <lane id="E3_2" index="2" speed="13.89" length="57.59" shape="-11.46,-6.52 -11.37,-64.10"/>
    </edge>
    <edge id="E4" from="J3" to="J5" priority="-1">
        <lane id="E4_0" index="0" speed="13.89" length="46.33" shape="121.62,20.73 121.54,67.05"/>
        <lane id="E4_1" index="1" speed="13.89" length="46.33" shape="118.42,20.72 118.34,67.05"/>
        <lane id="E4_2" index="2" speed="13.89" length="46.33" shape="115.22,20.71 115.14,67.04"/>
    </edge>
    <edge id="E5" from="J3" to="J6" priority="-1">
        <lane id="E5_0" index="0" speed="13.89" length="77.99" shape="127.27,-1.05 205.25,-1.80"/>
        <lane id="E5_1" index="1" speed="13.89" length="77.99" shape="127.30,2.15 205.28,1.40"/>
        <lane id="E5_2" index="2" speed="13.89" length="77.99" shape="127.33,5.35 205.31,4.60"/>
    </edge>
    <edge id="E6" from="J3" to="J7" priority="-1">
        <lane id="E6_0" index="0" speed="13.89" length="56.04" shape="105.66,-6.62 105.69,-62.66"/>
        <lane id="E6_1" index="1" speed="13.89" length="56.04" shape="108.86,-6.62 108.89,-62.66"/>
        <lane id="E6_2" index="2" speed="13.89" length="56.04" shape="112.06,-6.62 112.09,-62.66"/>
    </edge>
    <edge id="E7" from="J2" to="J5" priority="-1">
        <lane id="E7_0" index="0" speed="13.89" length="96.41" shape="3.30,73.42 99.70,72.82"/>
        <lane id="E7_1" index="1" speed="13.89" length="96.41" shape="3.32,76.62 99.72,76.02"/>
        <lane id="E7_2" index="2" speed="13.89" length="96.41" shape="3.34,79.82 99.74,79.22"/>
    </edge>
    <edge id="E8" from="J5" to="J8" priority="-1">
        <lane id="E8_0" index="0" speed="13.89" length="79.40" shape="127.14,72.63 206.54,72.02"/>
        <lane id="E8_1" index="1" speed="13.89" length="79.40" shape="127.16,75.83 206.56,75.22"/>
        <lane id="E8_2" index="2" speed="13.89" length="79.40" shape="127.19,79.03 206.59,78.42"/>
    </edge>
    <edge id="E9" from="J2" to="J9" priority="-1" shape="-10.37,81.51 -44.46,81.50 -130.40,81.48">
        <lane id="E9_0" index="0" speed="13.89" length="106.48" shape="-23.92,89.51 -44.46,89.50 -130.40,89.48"/>
        <lane id="E9_1" index="1" speed="13.89" length="106.48" shape="-23.92,86.31 -44.46,86.30 -130.40,86.28"/>
        <lane id="E9_2" index="2" speed="13.89" length="106.48" shape="-23.92,83.11 -44.46,83.10 -130.40,83.08"/>
    </edge>

    <tlLogic id="J1" type="static" programID="0" offset="0">
        <phase duration="33" state="GrrGGgGrrGGg"/>
        <phase duration="3"  state="yrryygyrryyg"/>
        <phase duration="6"  state="rrrrrGrrrrrG"/>
        <phase duration="3"  state="rrrrryrrrrry"/>
        <phase duration="33" state="GGgGrrGGgGrr"/>
        <phase duration="3"  state="yygyrryygyrr"/>
        <phase duration="6"  state="rrGrrrrrGrrr"/>
        <phase duration="3"  state="rryrrrrryrrr"/>
    </tlLogic>
    <tlLogic id="J2" type="static" programID="0" offset="0">
        <phase duration="33" state="GrrGGgGrrGGg"/>
        <phase duration="3"  state="yrryygyrryyg"/>
        <phase duration="6"  state="rrrrrGrrrrrG"/>
        <phase duration="3"  state="rrrrryrrrrry"/>
        <phase duration="33" state="GGgGrrGGgGrr"/>
        <phase duration="3"  state="yygyrryygyrr"/>
        <phase duration="6"  state="rrGrrrrrGrrr"/>
        <phase duration="3"  state="rryrrrrryrrr"/>
    </tlLogic>
    <tlLogic id="J3" type="static" programID="0" offset="0">
        <phase duration="33" state="GGgGrrGGgGrr"/>
        <phase duration="3"  state="yygyrryygyrr"/>
        <phase duration="6"  state="rrGrrrrrGrrr"/>
        <phase duration="3"  state="rryrrrrryrrr"/>
        <phase duration="33" state="GrrGGgGrrGGg"/>
        <phase duration="3"  state="yrryygyrryyg"/>
        <phase duration="6"  state="rrrrrGrrrrrG"/>
        <phase duration="3"  state="rrrrryrrrrry"/>
    </tlLogic>
    <tlLogic id="J5" type="static" programID="0" offset="0">
        <phase duration="33" state="GGgGrrGGgGrr"/>
        <phase duration="3"  state="yygyrryygyrr"/>
        <phase duration="6"  state="rrGrrrrrGrrr"/>
        <phase duration="3"  state="rryrrrrryrrr"/>
        <phase duration="33" state="GrrGGgGrrGGg"/>
        <phase duration="3"  state="yrryygyrryyg"/>
        <phase duration="6"  state="rrrrrGrrrrrG"/>
        <phase duration="3"  state="rrrrryrrrrry"/>
    </tlLogic>

    <junction id="J0" type="dead_end" x="-148.04" y="5.35" incLanes="E0_0 E0_1 E0_2" intLanes="" shape="-148.04,5.35 -148.17,14.95 -148.04,5.35"/>
    <junction id="J1" type="traffic_light" x="-9.88" y="7.20" incLanes="-E2_0 -E2_1 -E2_2 -E3_0 -E3_1 -E3_2 -E0_0 -E0_1 -E0_2 -E1_0 -E1_1 -E1_2" intLanes=":J1_0_0 :J1_1_0 :J1_12_0 :J1_3_0 :J1_4_0 :J1_13_0 :J1_6_0 :J1_7_0 :J1_14_0 :J1_9_0 :J1_10_0 :J1_15_0" shape="3.73,16.80 3.73,-2.40 1.51,-2.86 0.74,-3.42 0.18,-4.22 -0.15,-5.25 -0.26,-6.50 -19.46,-6.53 -19.91,-4.31 -20.46,-3.54 -21.24,-3.00 -22.24,-2.68 -23.46,-2.58 -23.72,16.62 -21.42,17.09 -20.62,17.66 -20.05,18.44 -19.71,19.45 -19.61,20.67 -0.41,20.86 0.07,18.60 0.64,17.81 1.45,17.25 2.48,16.91">
        <request index="0"  response="000000000000" foes="000000000000" cont="0"/>
        <request index="1"  response="110000010000" foes="110100010000" cont="0"/>
        <request index="2"  response="100010110000" foes="100010110000" cont="1"/>
        <request index="3"  response="000000000000" foes="000000000000" cont="0"/>
        <request index="4"  response="000000000100" foes="100010000110" cont="0"/>
        <request index="5"  response="010100000100" foes="010110000100" cont="1"/>
        <request index="6"  response="000000000000" foes="000000000000" cont="0"/>
        <request index="7"  response="010000110000" foes="010000110100" cont="0"/>
        <request index="8"  response="110000100010" foes="110000100010" cont="1"/>
        <request index="9"  response="000000000000" foes="000000000000" cont="0"/>
        <request index="10" response="000100000000" foes="000110100010" cont="0"/>
        <request index="11" response="000100010100" foes="000100010110" cont="1"/>
    </junction>
    <junction id="J10" type="dead_end" x="-9.57" y="155.62" incLanes="-E10_0 -E10_1 -E10_2" intLanes="" shape="-9.57,155.62 0.03,155.52 -9.57,155.62"/>
    <junction id="J11" type="dead_end" x="112.71" y="159.60" incLanes="E11_0 E11_1 E11_2" intLanes="" shape="112.71,159.60 122.31,159.70 112.71,159.60"/>
    <junction id="J2" type="traffic_light" x="-10.37" y="81.51" incLanes="E10_0 E10_1 E10_2 -E7_0 -E7_1 -E7_2 E1_0 E1_1 E1_2 -E9_0 -E9_1 -E9_2" intLanes=":J2_0_0 :J2_1_0 :J2_12_0 :J2_3_0 :J2_4_0 :J2_13_0 :J2_6_0 :J2_7_0 :J2_14_0 :J2_9_0 :J2_10_0 :J2_15_0" shape="-19.82,95.26 -0.62,95.05 -0.19,92.82 0.36,92.04 1.15,91.48 2.16,91.14 3.41,91.02 3.29,71.82 1.07,71.39 0.29,70.84 -0.26,70.07 -0.59,69.07 -0.69,67.85 -19.89,67.74 -20.35,70.05 -20.91,70.86 -21.69,71.44 -22.69,71.79 -23.91,71.91 -23.92,91.11 -21.66,91.57 -20.87,92.14 -20.30,92.95 -19.95,93.99">
        <request index="0"  response="000000000000" foes="000000000000" cont="0"/>
        <request index="1"  response="110000010000" foes="110100010000" cont="0"/>
        <request index="2"  response="100010110000" foes="100010110000" cont="1"/>
        <request index="3"  response="000000000000" foes="000000000000" cont="0"/>
        <request index="4"  response="000000000100" foes="100010000110" cont="0"/>
        <request index="5"  response="010100000100" foes="010110000100" cont="1"/>
        <request index="6"  response="000000000000" foes="000000000000" cont="0"/>
        <request index="7"  response="010000110000" foes="010000110100" cont="0"/>
        <request index="8"  response="110000100010" foes="110000100010" cont="1"/>
        <request index="9"  response="000000000000" foes="000000000000" cont="0"/>
        <request index="10" response="000100000000" foes="000110100010" cont="0"/>
        <request index="11" response="000100010100" foes="000100010110" cont="1"/>
    </junction>
    <junction id="J3" type="traffic_light" x="113.65" y="7.08" incLanes="-E5_0 -E5_1 -E5_2 -E6_0 -E6_1 -E6_2 E2_0 E2_1 E2_2 -E4_0 -E4_1 -E4_2" intLanes=":J3_0_0 :J3_1_0 :J3_12_0 :J3_3_0 :J3_4_0 :J3_13_0 :J3_6_0 :J3_7_0 :J3_14_0 :J3_9_0 :J3_10_0 :J3_15_0" shape="127.44,16.55 127.26,-2.65 125.03,-3.07 124.26,-3.62 123.70,-4.39 123.37,-5.39 123.26,-6.61 104.06,-6.62 103.61,-4.34 103.04,-3.54 102.26,-2.96 101.24,-2.62 100.01,-2.50 100.03,16.70 102.25,17.14 103.03,17.69 103.58,18.47 103.92,19.47 104.02,20.69 123.22,20.73 123.70,18.42 124.28,17.61 125.10,17.03 126.15,16.68">
        <request index="0"  response="000000000000" foes="000000000000" cont="0"/>
        <request index="1"  response="110000010000" foes="110100010000" cont="0"/>
        <request index="2"  response="100010110000" foes="100010110000" cont="1"/>
        <request index="3"  response="000000000000" foes="000000000000" cont="0"/>
        <request index="4"  response="000000000100" foes="100010000110" cont="0"/>
        <request index="5"  response="010100000100" foes="010110000100" cont="1"/>
        <request index="6"  response="000000000000" foes="000000000000" cont="0"/>
        <request index="7"  response="010000110000" foes="010000110100" cont="0"/>
        <request index="8"  response="110000100010" foes="110000100010" cont="1"/>
        <request index="9"  response="000000000000" foes="000000000000" cont="0"/>
        <request index="10" response="000100000000" foes="000110100010" cont="0"/>
        <request index="11" response="000100010100" foes="000100010110" cont="1"/>
    </junction>
    <junction id="J4" type="dead_end" x="-9.77" y="-64.10" incLanes="E3_0 E3_1 E3_2" intLanes="" shape="-9.77,-64.10 -19.37,-64.11 -9.77,-64.10"/>
    <junction id="J5" type="traffic_light" x="113.51" y="80.73" incLanes="-E8_0 -E8_1 -E8_2 E4_0 E4_1 E4_2 E7_0 E7_1 E7_2 -E11_0 -E11_1 -E11_2" intLanes=":J5_0_0 :J5_1_0 :J5_12_0 :J5_3_0 :J5_4_0 :J5_13_0 :J5_6_0 :J5_7_0 :J5_14_0 :J5_9_0 :J5_10_0 :J5_15_0" shape="127.27,90.23 127.13,71.03 124.91,70.60 124.13,70.05 123.58,69.28 123.24,68.28 123.14,67.06 103.94,67.02 103.46,69.34 102.87,70.15 102.05,70.74 100.99,71.09 99.69,71.22 99.81,90.42 102.03,90.85 102.80,91.40 103.35,92.17 103.67,93.17 103.77,94.39 122.97,94.59 123.47,92.18 124.07,91.33 124.90,90.72 125.97,90.36">
        <request index="0"  response="000000000000" foes="000000000000" cont="0"/>
        <request index="1"  response="100000000000" foes="110100010000" cont="0"/>
        <request index="2"  response="100010100000" foes="100010110000" cont="1"/>
        <request index="3"  response="000000000000" foes="000000000000" cont="0"/>